*SPEF "IEEE 1481-1998"
*DESIGN "counter"
*DATE "Tue Apr 12 14:16:59 2016"
*VENDOR "Cadence Design Systems, Inc."
*PROGRAM "Encounter"
*VERSION "13.13-s017_1"
*DESIGN_FLOW "PIN_CAP NONE" "NAME_SCOPE LOCAL"
*DIVIDER /
*DELIMITER :
*BUS_DELIMITER []
*T_UNIT 1 NS
*C_UNIT 1 PF
*R_UNIT 1 OHM
*L_UNIT 1 HENRY

*NAME_MAP

*1 clk
*2 rst
*3 load
*4 up
*5 cin[7]
*6 cin[6]
*7 cin[5]
*8 cin[4]
*9 cin[3]
*10 cin[2]
*11 cin[1]
*12 cin[0]
*13 cout[7]
*14 cout[6]
*15 cout[5]
*16 cout[4]
*17 cout[3]
*18 cout[2]
*19 cout[1]
*20 cout[0]
*21 n_0
*22 n_1
*23 n_2
*24 n_3
*25 n_4
*26 n_5
*27 n_6
*28 n_7
*29 n_8
*30 n_9
*31 n_10
*32 n_11
*33 n_12
*34 n_13
*35 n_14
*36 n_15
*37 n_16
*38 n_17
*39 n_18
*40 n_19
*41 n_20
*42 n_21
*43 n_22
*44 n_23
*45 n_24
*46 n_25
*47 n_26
*48 n_27
*49 n_28
*50 n_29
*51 n_30
*52 n_31
*53 n_32
*54 n_33
*55 n_34
*56 n_35
*57 n_36
*58 n_37
*59 n_38
*60 n_39
*61 n_40
*62 n_41
*63 n_42
*64 n_43
*65 n_44
*66 n_45
*67 cout_x_reg\[7\]
*68 g898
*69 g902
*70 g900
*71 g903
*72 g905
*73 g909
*74 g904
*75 g906
*76 g908
*77 g913
*78 cout_x_reg\[1\]
*79 g912
*80 g910
*81 g911
*82 g919
*83 g925
*84 g914
*85 g917
*86 g920
*87 g915
*88 g916
*89 g921
*90 g927
*91 g932
*92 g923
*93 g924
*94 g926
*95 g933
*96 cout_x_reg\[0\]
*97 g928
*98 g929
*99 g930
*100 g934
*101 g940
*102 g941
*103 g936
*104 g939
*105 g942
*106 g937
*107 g938
*108 g935
*109 g946
*110 g948
*111 cout_x_reg\[4\]
*112 cout_x_reg\[3\]
*113 cout_x_reg\[6\]
*114 cout_x_reg\[5\]
*115 cout_x_reg\[2\]


*PORTS

*1 I *C 16 0
*2 I *C 18 0
*3 I *C 33 14
*4 I *C 33 12
*5 I *C 25 0
*6 I *C 18 0
*7 I *C 13 0
*8 I *C 0 18
*9 I *C 0 18
*10 I *C 33 15
*11 I *C 33 15
*12 I *C 22 30
*13 O *C 33 9
*14 O *C 18 0
*15 O *C 11 0
*16 O *C 0 13
*17 O *C 11 30
*18 O *C 17 30
*19 O *C 23 30
*20 O *C 22 30


*D_NET *1 0.00539758

*CONN
*I *78:CK I *C 22 18 *L 0 *D QDFFRBX1
*I *96:CK I *C 22 20 *L 0 *D QDFZRBX1
*I *115:CK I *C 20 18 *L 0 *D DFFRBX1
*I *67:CK I *C 21 9 *L 0 *D QDFFRBX1
*I *113:CK I *C 21 6 *L 0 *D DFFRBX1
*I *114:CK I *C 6 6 *L 0 *D DFFRBX1
*P *1 I *C 16 0 *L 0
*I *111:CK I *C 6 12 *L 0 *D DFFRBX1
*I *112:CK I *C 5 20 *L 0 *D DFFRBX1

*CAP
1 *1:0 9.87689e-05
2 *1:1 9.87689e-05
3 *1:2 4.23295e-05
4 *1:4 1.41098e-05
5 *1:5 3.02354e-05
6 *1:6 8.21015e-05
7 *1:7 1.61255e-05
8 *1:8 0.000123152
9 *1:9 1.41098e-05
10 *1:10 0.000451515
11 *1:11 4.10507e-05
12 *1:13 0.000465625
13 *1:15 0.000112879
14 *1:17 1.41098e-05
15 *1:18 0.000112879
16 *1:20 2.82197e-05
17 *1:21 0.000259988
18 *1:23 0.00072523
19 *1:24 0.000465242
20 *1:25 0.000126989
21 *1:26 0.000296307
22 *1:27 0.000141099
23 *1:28 0.000282197
24 *1:29 2.82197e-05
25 *1:30 0.000225758
26 *1:31 0.000352746
27 *1 0.000211648
28 *1:34 0.000338636
29 *1:35 1.41098e-05
30 *1:36 9.87689e-05
31 *1:38 8.46591e-05

*RES
1 *1:38 *112:CK 4
2 *1:36 *1:38 1.26
3 *1:35 *111:CK 4
4 *1:34 *1:36 0.21
5 *1:31 *1:35 0.21
6 *1:31 *1:34 4.83
7 *1:30 *1 3.15
8 *1:29 *114:CK 4
9 *1:28 *1:31 0.21
10 *1:27 *1:30 0.21
11 *1:26 *1:29 0.42
12 *1:26 *1:28 3.99
13 *1:25 *1:27 1.89
14 *1:24 *1:26 4
15 *1:23 *1:25 4
16 *1:23 *1:24 7.14
17 *1:21 *1:23 3.99
18 *1:20 *113:CK 4
19 *1:18 *1:21 4
20 *1:18 *1:20 0.42
21 *1:17 *67:CK 4
22 *1:15 *1:18 1.26
23 *1:15 *1:17 0.21
24 *1:14 *115:CK 4
25 *1:13 *1:15 0.21
26 *1:11 *1:14 4
27 *1:10 *1:13 6.72
28 *1:9 *96:CK 4
29 *1:8 *1:11 0.63
30 *1:8 *1:10 4
31 *1:7 *1:9 0.21
32 *1:6 *1:8 1.26
33 *1:5 *1:7 0.03
34 *1:4 *1:6 4
35 *1:2 *1:5 0.42
36 *1:1 *1:4 0.21
37 *1:1 *78:CK 4
38 *1:0 *1:2 0.21
39 *1:0 *1:1 1.26
*END

*D_NET *2 0.0059572

*CONN
*I *96:RB I *C 25 20 *L 0 *D QDFZRBX1
*I *78:RB I *C 25 18 *L 0 *D QDFFRBX1
*I *115:RB I *C 17 18 *L 0 *D DFFRBX1
*P *2 I *C 18 0 *L 0
*I *112:RB I *C 9 20 *L 0 *D DFFRBX1
*I *113:RB I *C 18 7 *L 0 *D DFFRBX1
*I *67:RB I *C 24 9 *L 0 *D QDFFRBX1
*I *111:RB I *C 9 12 *L 0 *D DFFRBX1
*I *114:RB I *C 9 7 *L 0 *D DFFRBX1

*CAP
1 *2:0 0.000112879
2 *2:1 0.000112879
3 *2:3 0.00038314
4 *2:5 0.000424191
5 *2:6 0.000421009
6 *2:7 0.000424191
7 *2:8 0.000516075
8 *2:10 0.00038314
9 *2:11 1.36836e-05
10 *2:12 9.50665e-05
11 *2:14 0.000126989
12 *2:15 0.000259988
13 *2:17 0.000126989
14 *2:18 0.000126989
15 *2:19 0.000259988
16 *2:20 0.000126989
17 *2:21 0.000339523
18 *2:22 0.000112879
19 *2:23 7.05492e-05
20 *2:24 8.21015e-05
21 *2:25 0.000126989
22 *2 0.000339523
23 *2:28 7.05492e-05
24 *2:29 6.84179e-05
25 *2:31 0.000126989
26 *2:33 0.000225758
27 *2:36 0.000126989
28 *2:37 0.000183428
29 *2:38 0.000169318

*RES
1 *2:38 *114:RB 4
2 *2:37 *2:38 2.52
3 *2:36 *2:37 0.21
4 *2:33 *2:36 1.68
5 *2:33 *111:RB 4
6 *2:32 *67:RB 4
7 *2:31 *2:33 1.68
8 *2:29 *2:32 4
9 *2:28 *2:31 0.21
10 *2:25 *113:RB 4
11 *2:24 *2:29 1.05
12 *2:23 *2:28 0.84
13 *2:22 *112:RB 4
14 *2:21 *2 5.25
15 *2:20 *2:25 1.89
16 *2:19 *2:24 0.21
17 *2:18 *2:23 0.21
18 *2:17 *2:22 1.68
19 *2:16 *2:21 4
20 *2:15 *2:20 4
21 *2:15 *2:19 3.78
22 *2:14 *2:18 1.68
23 *2:14 *2:17 0.21
24 *2:12 *2:16 4
25 *2:11 *2:15 0.21
26 *2:10 *2:14 4
27 *2:9 *115:RB 4
28 *2:8 *2:12 1.47
29 *2:8 *2:11 4
30 *2:7 *2:10 5.88
31 *2:7 *2:9 4
32 *2:6 *2:8 6.51
33 *2:5 *2:7 0.63
34 *2:5 *2:6 4
35 *2:3 *2:5 5.88
36 *2:1 *78:RB 4
37 *2:1 *2:3 4
38 *2:0 *96:RB 4
39 *2:0 *2:1 1.68
*END

*D_NET *3 0.00622293

*CONN
*I *96:SEL I *C 21 20 *L 0 *D QDFZRBX1
*I *90:B1 I *C 26 15 *L 0 *D AOI22XLP
*I *82:A1 I *C 18 15 *L 0 *D AO222XLP
*P *3 I *C 33 14 *L 0
*I *106:I2 I *C 26 12 *L 0 *D NR2XLP
*I *110:I I *C 26 9 *L 0 *D INVCKXLP
*I *70:C1 I *C 18 9 *L 0 *D AO222XLP
*I *72:C1 I *C 14 7 *L 0 *D AOI222XLP
*I *84:A1 I *C 7 15 *L 0 *D AOI23XLP
*I *104:I1 I *C 25 7 *L 0 *D ND2XLP
*I *107:I1 I *C 7 18 *L 0 *D ND2XLP

*CAP
1 *3:0 0.000169318
2 *3:1 0.000239867
3 *3:3 0.000109469
4 *3:4 7.05492e-05
5 *3:5 0.000109469
6 *3:6 0.000232621
7 *3:7 8.14856e-05
8 *3:8 0.000273672
9 *3:9 0.000325942
10 *3:10 4.10507e-05
11 *3:11 1.41098e-05
12 *3:12 0.000244457
13 *3:13 4.10507e-05
14 *3:14 7.05492e-05
15 *3:15 1.41098e-05
16 *3:16 1.36836e-05
17 *3:17 0.000218937
18 *3:18 0.000155208
19 *3:19 1.31015e-05
20 *3:20 1.36836e-05
21 *3:22 0.000177887
22 *3:23 0.00029789
23 *3:24 0.000239867
24 *90:B1 1.31015e-05
25 *3:26 2.82197e-05
26 *3:28 0.000407428
27 *3 0.00029789
28 *3:31 0.000268087
29 *3:32 2.82197e-05
30 *3:33 9.50665e-05
31 *3:34 0.000312361
32 *3:35 0.000112879
33 *3:37 1.31015e-05
34 *3:38 0.000355773
35 *3:40 9.57851e-05
36 *70:C1 1.31015e-05
37 *3:42 0.000355773
38 *3:43 9.87689e-05
39 *3:44 9.57851e-05
40 *3:45 0.000155208
41 *3:46 9.87689e-05
42 *3:47 1.41098e-05
43 *3:48 4.23295e-05
44 *3:49 0.000112879
45 *3:51 1.41098e-05
46 *3:52 1.31015e-05
47 *107:I1 1.31015e-05

*RES
1 *3:52 *107:I1 0.268333
2 *3:51 *104:I1 4
3 *3:49 *84:A1 4
4 *3:48 *3:52 4
5 *3:47 *3:51 0.21
6 *3:46 *72:C1 4
7 *3:45 *3:49 1.68
8 *3:45 *3:48 0.63
9 *3:44 *3:47 4
10 *3:43 *3:46 1.47
11 *3:42 *3:45 4
12 *3:40 *3:44 1.47
13 *3:39 *3:43 4
14 *3:38 *3:42 5.46
15 *3:37 *70:C1 0.268333
16 *3:35 *3:40 4
17 *3:34 *3:39 4
18 *3:33 *3:38 4
19 *3:32 *3:37 4
20 *3:31 *110:I 4
21 *3:31 *3:35 1.68
22 *3:28 *3:34 4.83
23 *3:28 *3:33 1.47
24 *3:26 *3:32 0.42
25 *3:24 *3:31 2.31
26 *3:24 *106:I2 4
27 *3:23 *3 4.5975
28 *3:22 *3:28 4
29 *3:21 *82:A1 4
30 *3:20 *3:26 4
31 *3:19 *90:B1 0.268333
32 *3:18 *3:24 1.26
33 *3:18 *3:23 4
34 *3:17 *3:22 2.73
35 *3:17 *3:21 4
36 *3:16 *3:20 0.21
37 *3:15 *3:19 4
38 *3:14 *3:18 1.05
39 *3:13 *3:17 0.63
40 *3:12 *3:16 4
41 *3:11 *3:15 0.21
42 *3:10 *3:14 4
43 *3:9 *3:13 4
44 *3:9 *3:12 3.78
45 *3:8 *3:11 4
46 *3:8 *3:10 0.63
47 *3:7 *3:9 1.26
48 *3:6 *3:8 3.57
49 *3:5 *3:7 4
50 *3:4 *3:6 4
51 *3:3 *3:5 1.68
52 *3:1 *3:4 1.05
53 *3:1 *3:3 4
54 *3:0 *96:SEL 4
55 *3:0 *3:1 2.52
*END

*D_NET *4 0.000677881

*CONN
*I *106:I1 I *C 27 12 *L 0 *D NR2XLP
*P *4 I *C 33 12 *L 0
*I *102:I2 I *C 26 12 *L 0 *D ND2XLP

*CAP
1 *4:1 8.21015e-05
2 *4:3 0.000270523
3 *4:4 6.84179e-05
4 *4 0.000256839

*RES
1 *4:6 *102:I2 4
2 *4:4 *4:6 4
3 *4:3 *4 3.9675
4 *4:1 *4:4 1.05
5 *4:1 *4:3 0.21
6 *4:0 *106:I1 4
7 *4:0 *4:1 4
*END

*D_NET *5 0.000677273

*CONN
*P *5 I *C 25 0 *L 0
*I *104:I2 I *C 25 7 *L 0 *D ND2XLP

*CAP
1 *5 2.82197e-05
2 *5:1 0.000338636
3 *5:2 0.000310417

*RES
1 *5:2 *104:I2 4
2 *5:1 *5:2 4.62
3 *5 *5:1 0.42
*END

*D_NET *6 0.00090303

*CONN
*P *6 I *C 18 0 *L 0
*I *70:C2 I *C 18 9 *L 0 *D AO222XLP

*CAP
1 *6 0.000211648
2 *6:1 0.000225758
3 *6:2 0.000239867
4 *6:3 0.000225758

*RES
1 *6:3 *70:C2 4
2 *6:2 *6:3 3.36
3 *6:1 *6:2 0.21
4 *6 *6:1 3.15
*END

*D_NET *7 0.000731155

*CONN
*P *7 I *C 13 0 *L 0
*I *72:C2 I *C 14 7 *L 0 *D AOI222XLP

*CAP
1 *7 0.000296307
2 *7:1 0.000296307
3 *7:2 4.10507e-05
4 *7:3 4.10507e-05
5 *7:4 2.82197e-05
6 *7:5 2.82197e-05

*RES
1 *7:5 *72:C2 4
2 *7:4 *7:5 0.42
3 *7:3 *7:4 4
4 *7:2 *7:3 0.63
5 *7:1 *7:2 4
6 *7 *7:1 4.41
*END

*D_NET *8 0.00088257

*CONN
*P *8 I *C 0 18 *L 0
*I *84:A2 I *C 7 15 *L 0 *D AOI23XLP

*CAP
1 *8 2.73672e-05
2 *8:1 0.000328406
3 *8:2 0.000301039
4 *8:3 0.000112879
5 *8:4 0.000112879

*RES
1 *8:4 *84:A2 4
2 *8:3 *8:4 1.68
3 *8:2 *8:3 4
4 *8:1 *8:2 4.62
5 *8 *8:1 0.42
*END

*D_NET *9 0.000529912

*CONN
*P *9 I *C 0 18 *L 0
*I *107:I2 I *C 6 18 *L 0 *D ND2XLP

*CAP
1 *9 5.43237e-05
2 *9:1 5.43237e-05
3 *9:4 1.41098e-05
4 *9:5 1.41098e-05
5 *9:6 0.000196522
6 *107:I2 0.000196522

*RES
1 *9:6 *107:I2 4.025
2 *9:5 *9:6 4
3 *9:4 *9:5 0.21
4 *9:3 *9:4 4
5 *9:2 *9:3 4
6 *9:1 *9:2 4
7 *9 *9:1 0.84
*END

*D_NET *10 0.00147218

*CONN
*P *10 I *C 33 15 *L 0
*I *82:A2 I *C 18 15 *L 0 *D AO222XLP

*CAP
1 *10 0.000188678
2 *10:1 0.000202259
3 *10:2 0.000533301
4 *10:3 0.00051972
5 *10:4 1.41098e-05
6 *10:5 1.41098e-05

*RES
1 *10:5 *82:A2 4
2 *10:4 *10:5 0.21
3 *10:3 *10:4 4
4 *10:2 *10:3 7.98
5 *10:1 *10:2 0.21
6 *10 *10:1 2.9175
*END

*D_NET *11 0.000623147

*CONN
*P *11 I *C 33 15 *L 0
*I *90:B2 I *C 26 15 *L 0 *D AOI22XLP

*CAP
1 *11 0.00021584
2 *11:1 0.00021584
3 *11:3 9.57338e-05
4 *11:4 9.57338e-05

*RES
1 *11:5 *90:B2 4
2 *11:4 *11:5 4
3 *11:3 *11:4 1.47
4 *11:2 *11:3 4
5 *11:1 *11:2 4
6 *11 *11:1 3.3375
*END

*D_NET *12 0.000953211

*CONN
*P *12 I *C 22 30 *L 0
*I *96:TD I *C 22 20 *L 0 *D QDFZRBX1

*CAP
1 *12 0.000264958
2 *12:1 0.000293177
3 *12:2 0.000211648
4 *12:3 0.000183428

*RES
1 *12:3 *96:TD 4
2 *12:2 *12:3 2.73
3 *12:1 *12:2 0.42
4 *12 *12:1 3.9825
*END

*D_NET *13 0.00126112

*CONN
*P *13 O *C 33 9 *L 0
*I *67:Q O *C 25 9 *L 0 *D QDFFRBX1
*I *68:C2 I *C 25 12 *L 0 *D OAI112XLP
*I *71:A1 I *C 23 12 *L 0 *D OAI12XLP

*CAP
1 *13:0 1.41098e-05
2 *13:1 0.000352624
3 *13:2 0.000141099
4 *13 0.000352624
5 *13:4 0.000126989
6 *13:6 4.10507e-05
7 *13:7 0.000136836
8 *13:9 9.57851e-05

*RES
1 *13:11 *71:A1 4
2 *13:9 *13:11 4
3 *13:8 *68:C2 4
4 *13:7 *13:9 1.47
5 *13:7 *13:8 4
6 *13:6 *13:7 0.63
7 *13:4 *13:6 4
8 *13:2 *67:Q 4
9 *13:2 *13:4 1.89
10 *13:1 *13 5.4375
11 *13:0 *13:2 0.21
12 *13:0 *13:1 4
*END

*D_NET *14 0.00105643

*CONN
*I *113:Q O *C 17 7 *L 0 *D DFFRBX1
*P *14 O *C 18 0 *L 0
*I *70:B2 I *C 17 9 *L 0 *D AO222XLP

*CAP
1 *14:0 0.000253977
2 *14:1 4.10507e-05
3 *14:2 0.000282197
4 *14:3 4.10507e-05
5 *14:4 4.23295e-05
6 *14:6 6.79047e-05
7 *14:7 8.46591e-05
8 *14 6.79047e-05
9 *14:9 7.05492e-05
10 *14:10 3.93045e-05
11 *14:11 5.2406e-05
12 *70:B2 1.31015e-05

*RES
1 *14:11 *70:B2 0.268333
2 *14:10 *14:11 0.805
3 *14:9 *14:10 4
4 *14:7 *14:9 1.05
5 *14:6 *14 1.05
6 *14:4 *14:7 0.21
7 *14:3 *14:6 4
8 *14:2 *113:Q 4
9 *14:2 *14:4 0.42
10 *14:1 *14:3 0.63
11 *14:0 *14:2 3.78
12 *14:0 *14:1 4
*END

*D_NET *15 0.00165558

*CONN
*P *15 O *C 11 0 *L 0
*I *114:Q O *C 10 7 *L 0 *D DFFRBX1
*I *80:I1 I *C 11 9 *L 0 *D NR2XLP
*I *81:I2 I *C 12 9 *L 0 *D AN2XLP
*I *72:B2 I *C 14 6 *L 0 *D AOI222XLP

*CAP
1 *15:0 0.000380966
2 *15 2.82197e-05
3 *15:2 0.000437405
4 *15:3 7.05492e-05
5 *15:4 5.64394e-05
6 *15:5 4.23295e-05
7 *15:6 2.82197e-05
8 *15:7 4.23295e-05
9 *15:9 8.21015e-05
10 *15:10 1.41098e-05
11 *15:11 0.000150519
12 *15:13 6.84179e-05
13 *15:15 0.000126989
14 *15:17 0.000126989

*RES
1 *15:17 *72:B2 4
2 *15:15 *15:17 1.89
3 *15:14 *81:I2 4
4 *15:13 *15:15 4
5 *15:11 *15:14 4
6 *15:11 *15:13 1.05
7 *15:10 *80:I1 4
8 *15:9 *15:11 1.26
9 *15:7 *15:10 0.21
10 *15:7 *15:9 4
11 *15:6 *114:Q 4
12 *15:5 *15:7 0.42
13 *15:4 *15:6 0.42
14 *15:3 *15:5 0.21
15 *15:2 *15:4 0.42
16 *15:2 *15:3 0.84
17 *15:0 *15:2 5.25
18 *15:0 *15 0.42
*END

*D_NET *16 0.00151713

*CONN
*P *16 O *C 0 13 *L 0
*I *111:Q O *C 10 12 *L 0 *D DFFRBX1
*I *88:I3 I *C 12 12 *L 0 *D AN3XLP
*I *79:C1 I *C 12 15 *L 0 *D OAI122XLP

*CAP
1 *16:0 0.000136836
2 *16:1 0.000355773
3 *16:2 0.000205254
4 *16 0.00034209
5 *16:4 8.21015e-05
6 *16:5 2.82197e-05
7 *16:6 0.000112879
8 *16:7 2.82197e-05
9 *16:8 8.46591e-05
10 *16:9 4.23295e-05
11 *16:11 5.64394e-05
12 *16:13 4.23295e-05

*RES
1 *16:13 *79:C1 4
2 *16:11 *16:13 0.63
3 *16:9 *88:I3 4
4 *16:8 *16:11 0.21
5 *16:7 *111:Q 4
6 *16:6 *16:9 0.63
7 *16:6 *16:8 1.05
8 *16:5 *16:7 0.42
9 *16:4 *16:6 4
10 *16:2 *16:5 4
11 *16:2 *16:4 1.26
12 *16:1 *16 5.25
13 *16:0 *16:2 1.89
14 *16:0 *16:1 0.21
*END

*D_NET *17 0.00147674

*CONN
*P *17 O *C 11 30 *L 0
*I *93:I1 I *C 12 23 *L 0 *D NR2XLP
*I *89:B I *C 12 20 *L 0 *D MXL2XLP
*I *86:B2 I *C 9 24 *L 0 *D AOI12XLP
*I *112:Q O *C 10 20 *L 0 *D DFFRBX1

*CAP
1 *17 0.000307287
2 *17:1 0.000434276
3 *17:2 6.55075e-05
4 *17:3 0.000155208
5 *93:I1 2.6203e-05
6 *17:5 3.93045e-05
7 *17:6 4.23295e-05
8 *17:7 1.41098e-05
9 *17:8 1.41098e-05
10 *17:9 1.41098e-05
11 *17:11 4.10507e-05
12 *17:12 4.10507e-05
13 *17:13 4.23295e-05
14 *17:14 1.41098e-05
15 *17:15 4.23295e-05
16 *17:17 9.87689e-05
17 *17:18 8.46591e-05

*RES
1 *17:18 *112:Q 4
2 *17:17 *17:18 1.26
3 *17:15 *17:17 0.21
4 *17:14 *86:B2 4
5 *17:13 *17:15 0.42
6 *17:13 *17:14 0.21
7 *17:12 *17:13 4
8 *17:11 *17:12 0.63
9 *17:9 *17:11 4
10 *17:8 *89:B 4
11 *17:7 *17:9 0.21
12 *17:6 *17:8 0.21
13 *17:5 *17:7 4
14 *17:3 *17:6 0.42
15 *17:2 *17:5 0.805
16 *17:2 *93:I1 0.536667
17 *17:1 *17:3 1.89
18 *17:1 *17:2 4
19 *17 *17:1 4.6125
*END

*D_NET *18 0.00122936

*CONN
*I *115:Q O *C 16 18 *L 0 *D DFFRBX1
*I *97:A I *C 16 20 *L 0 *D MXL2XLP
*P *18 O *C 17 30 *L 0

*CAP
1 *18:1 9.87689e-05
2 *18:2 9.87689e-05
3 *18:3 2.6203e-05
4 *18:4 3.93045e-05
5 *97:A 1.31015e-05
6 *18:6 4.23295e-05
7 *18:7 5.64394e-05
8 *18:8 0.000211648
9 *18:9 0.000211648
10 *18:10 0.000222628
11 *18 0.000208518

*RES
1 *18:10 *18 3.1425
2 *18:9 *18:10 0.21
3 *18:8 *18:9 2.94
4 *18:7 *18:8 0.21
5 *18:6 *18:7 0.63
6 *97:A *18:6 4
7 *18:4 *97:A 0.268333
8 *18:3 *18:4 0.536667
9 *18:2 *18:3 4
10 *18:1 *18:2 1.47
11 *115:Q *18:1 4
*END

*D_NET *19 0.00206495

*CONN
*P *19 O *C 23 30 *L 0
*I *100:S I *C 24 23 *L 0 *D MXL2XLP
*I *105:I1 I *C 21 23 *L 0 *D NR2XLP
*I *108:I2 I *C 20 20 *L 0 *D ND2XLP
*I *78:Q O *C 26 18 *L 0 *D QDFFRBX1

*CAP
1 *19:0 0.000335507
2 *19 0.000335507
3 *19:2 0.000164203
4 *19:3 0.000164203
5 *19:4 0.000109469
6 *19:5 0.000109469
7 *19:6 1.41098e-05
8 *19:7 8.46591e-05
9 *19:8 0.000126989
10 *19:9 1.41098e-05
11 *19:10 1.41098e-05
12 *19:11 9.87689e-05
13 *19:12 0.000141099
14 *19:15 7.05492e-05
15 *19:16 0.000126989
16 *19:17 4.23295e-05
17 *19:18 0.000112879

*RES
1 *19:18 *78:Q 4
2 *19:17 *108:I2 4
3 *19:16 *19:18 1.68
4 *19:15 *19:17 0.63
5 *19:12 *19:16 0.21
6 *19:11 *19:15 0.42
7 *19:10 *105:I1 4
8 *19:9 *100:S 4
9 *19:8 *19:12 1.89
10 *19:7 *19:11 1.05
11 *19:7 *19:10 0.21
12 *19:6 *19:9 0.21
13 *19:5 *19:8 4
14 *19:4 *19:7 4
15 *19:3 *19:6 4
16 *19:3 *19:5 1.68
17 *19:2 *19:4 1.68
18 *19:2 *19:3 0.84
19 *19:0 *19:2 4
20 *19:0 *19 5.0325
*END

*D_NET *20 0.00194172

*CONN
*P *20 O *C 22 30 *L 0
*I *109:I I *C 23 24 *L 0 *D INVCKXLP
*I *100:A I *C 25 24 *L 0 *D MXL2XLP
*I *96:Q O *C 26 20 *L 0 *D QDFZRBX1
*I *105:I2 I *C 20 23 *L 0 *D NR2XLP
*I *108:I1 I *C 19 20 *L 0 *D ND2XLP

*CAP
1 *20:0 0.000284715
2 *20 0.000284715
3 *20:2 2.73672e-05
4 *20:4 4.10508e-05
5 *20:5 9.17104e-05
6 *20:6 0.000136836
7 *109:I 2.6203e-05
8 *20:8 6.55075e-05
9 *20:9 0.000123152
10 *20:12 6.84179e-05
11 *100:A 5.2406e-05
12 *20:14 6.84179e-05
13 *20:15 5.2406e-05
14 *20:16 1.41098e-05
15 *20:17 0.000126989
16 *20:18 8.46591e-05
17 *20:19 0.000126989
18 *20:20 1.31015e-05
19 *20:21 8.46591e-05
20 *105:I2 1.31015e-05
21 *20:24 8.46591e-05
22 *20:25 7.05492e-05

*RES
1 *20:25 *108:I1 4
2 *20:24 *20:25 1.05
3 *20:21 *20:24 0.21
4 *20:20 *105:I2 0.268333
5 *20:19 *96:Q 4
6 *20:18 *20:21 1.05
7 *20:18 *20:20 4
8 *20:17 *20:19 1.89
9 *20:16 *20:18 0.21
10 *20:15 *20:17 4
11 *20:14 *20:16 4
12 *100:A *20:15 1.07333
13 *20:12 *20:14 1.05
14 *20:11 *100:A 4
15 *20:10 *20:12 4
16 *20:9 *20:11 4
17 *20:8 *20:10 4
18 *20:6 *20:9 1.89
19 *20:5 *20:8 1.34167
20 *20:5 *109:I 0.536667
21 *20:4 *20:6 0.21
22 *20:3 *20:5 4
23 *20:2 *20:4 0.42
24 *20:2 *20:3 4
25 *20:0 *20:2 4
26 *20:0 *20 4.4025
*END

*D_NET *21 0.000307859

*CONN
*I *110:O O *C 26 9 *L 0 *D INVCKXLP
*I *102:I1 I *C 25 12 *L 0 *D ND2XLP

*CAP
1 *21:2 4.10507e-05
2 *21:3 4.10507e-05
3 *21:4 0.000112879
4 *21:5 0.000112879

*RES
1 *21:5 *102:I1 4
2 *21:4 *21:5 1.68
3 *21:3 *21:4 4
4 *21:2 *21:3 0.63
5 *21:1 *21:2 4
6 *110:O *21:1 4
*END

*D_NET *22 0.000218937

*CONN
*I *107:O O *C 6 18 *L 0 *D ND2XLP
*I *77:A1 I *C 9 18 *L 0 *D OAI122XLP

*CAP
1 *22:2 0.000109469
2 *22:3 0.000109469

*RES
1 *22:4 *77:A1 4
2 *22:3 *22:4 4
3 *22:2 *22:3 1.68
4 *22:1 *22:2 4
5 *107:O *22:1 4
*END

*D_NET *23 0.00064502

*CONN
*I *104:O O *C 25 7 *L 0 *D ND2XLP
*I *68:B1 I *C 24 12 *L 0 *D OAI112XLP

*CAP
1 *23:1 0.000126989
2 *23:2 0.000155208
3 *23:3 0.000169318
4 *23:4 0.000141098
5 *23:5 2.6203e-05
6 *68:B1 2.6203e-05

*RES
1 *23:5 *68:B1 0.536667
2 *23:4 *23:5 4
3 *23:3 *23:4 2.1
4 *23:2 *23:3 0.42
5 *23:1 *23:2 1.89
6 *104:O *23:1 4
*END

*D_NET *24 0.000517483

*CONN
*I *109:O O *C 23 24 *L 0 *D INVCKXLP
*I *96:D I *C 21 20 *L 0 *D QDFZRBX1
*I *100:B I *C 24 24 *L 0 *D MXL2XLP

*CAP
1 *109:O 0.000104812
2 *24:1 0.000104812
3 *24:2 0.000112879
4 *24:4 0.000112879
5 *24:5 4.10507e-05
6 *24:7 4.10507e-05

*RES
1 *24:8 *100:B 4
2 *24:7 *24:8 4
3 *24:5 *24:7 0.63
4 *24:4 *96:D 4
5 *24:3 *24:5 4
6 *24:2 *24:4 1.68
7 *109:O *24:3 4
8 *24:1 *24:2 4
9 *109:O *24:1 2.14667
*END

*D_NET *25 0.000437563

*CONN
*I *97:S I *C 17 21 *L 0 *D MXL2XLP
*I *108:O O *C 19 20 *L 0 *D ND2XLP
*I *99:I2 I *C 15 20 *L 0 *D OR2XLP

*CAP
1 *25:1 0.00019157
2 *25:3 0.000136836
3 *25:4 5.47343e-05
4 *25:5 1.41098e-05
5 *25:7 1.41098e-05
6 *25:8 1.31015e-05
7 *99:I2 1.31015e-05

*RES
1 *25:8 *99:I2 0.268333
2 *25:7 *108:O 4
3 *25:6 *25:8 4
4 *25:5 *25:7 0.21
5 *25:4 *25:6 4
6 *25:3 *25:5 4
7 *25:1 *25:4 0.84
8 *25:1 *25:3 2.1
9 *25:0 *97:S 4
10 *25:0 *25:1 4
*END

*D_NET *26 0.000590124

*CONN
*I *98:I1 I *C 18 24 *L 0 *D ND2XLP
*I *105:O O *C 20 24 *L 0 *D NR2XLP
*I *94:B1 I *C 15 24 *L 0 *D OAI12XLP

*CAP
1 *98:I1 6.55075e-05
2 *26:2 0.000136836
3 *26:3 9.17104e-05
4 *26:4 0.000136836
5 *26:5 6.55075e-05
6 *26:6 1.41098e-05
7 *105:O 3.93045e-05
8 *26:8 1.41098e-05
9 *26:9 1.31015e-05
10 *94:B1 1.31015e-05

*RES
1 *26:9 *94:B1 0.268333
2 *26:8 *26:9 4
3 *26:6 *26:8 0.21
4 *26:5 *105:O 0.805
5 *26:4 *26:6 4
6 *26:3 *26:5 0.536667
7 *26:2 *26:4 2.1
8 *98:I1 *26:3 1.34167
9 *26:0 *26:2 4
10 *26:0 *98:I1 4
*END

*D_NET *27 0.00102606

*CONN
*I *97:B I *C 17 20 *L 0 *D MXL2XLP
*I *94:B2 I *C 15 24 *L 0 *D OAI12XLP
*I *98:I2 I *C 17 24 *L 0 *D ND2XLP
*I *99:I1 I *C 15 20 *L 0 *D OR2XLP
*I *115:QB O *C 15 18 *L 0 *D DFFRBX1

*CAP
1 *27:0 9.57851e-05
2 *27:1 9.57851e-05
3 *27:2 0.000141098
4 *27:4 0.000183428
5 *27:5 9.87689e-05
6 *27:7 9.87689e-05
7 *27:8 7.05492e-05
8 *27:9 2.82197e-05
9 *94:B2 7.86089e-05
10 *27:11 4.23295e-05
11 *27:12 1.41098e-05
12 *98:I2 7.86089e-05

*RES
1 *27:12 *115:QB 4
2 *27:11 *99:I1 4
3 *94:B2 *98:I2 1.61
4 *27:9 *27:12 0.21
5 *27:8 *27:11 0.63
6 *27:7 *94:B2 4
7 *27:5 *27:9 0.21
8 *27:4 *27:8 0.42
9 *27:4 *27:7 1.47
10 *27:3 *97:B 4
11 *27:2 *27:5 1.26
12 *27:2 *27:4 0.84
13 *27:1 *27:3 4
14 *27:0 *27:2 4
15 *27:0 *27:1 1.47
*END

*D_NET *28 0.000590056

*CONN
*I *97:OB O *C 17 20 *L 0 *D MXL2XLP
*I *82:C1 I *C 17 15 *L 0 *D AO222XLP

*CAP
1 *28:1 0.000225758
2 *28:2 0.000225758
3 *28:3 4.10507e-05
4 *28:4 4.10507e-05
5 *28:5 2.82197e-05
6 *28:6 2.82197e-05

*RES
1 *28:6 *82:C1 4
2 *28:5 *28:6 0.42
3 *28:4 *28:5 4
4 *28:3 *28:4 0.63
5 *28:2 *28:3 4
6 *28:1 *28:2 3.36
7 *97:OB *28:1 4
*END

*D_NET *29 0.000104812

*CONN
*I *95:OB O *C 21 13 *L 0 *D MXL2XLP
*I *71:B2 I *C 21 12 *L 0 *D OAI12XLP

*CAP
1 *95:OB 2.6203e-05
2 *29:1 5.2406e-05
3 *71:B2 2.6203e-05

*RES
1 *29:1 *71:B2 0.536667
2 *95:OB *29:1 0.536667
*END

*D_NET *30 0.000923183

*CONN
*I *94:O O *C 14 23 *L 0 *D OAI12XLP
*I *82:B1 I *C 16 15 *L 0 *D AO222XLP

*CAP
1 *30:1 0.000211648
2 *30:2 0.000225758
3 *30:3 0.000197538
4 *30:4 0.000183428
5 *30:5 5.2406e-05
6 *82:B1 5.2406e-05

*RES
1 *30:5 *82:B1 1.07333
2 *30:4 *30:5 4
3 *30:3 *30:4 2.73
4 *30:2 *30:3 0.21
5 *30:1 *30:2 3.15
6 *94:O *30:1 4
*END

*D_NET *31 0.000897837

*CONN
*I *86:B1 I *C 9 24 *L 0 *D AOI12XLP
*I *93:I2 I *C 12 23 *L 0 *D NR2XLP
*I *94:A1 I *C 14 24 *L 0 *D OAI12XLP
*I *98:O O *C 18 24 *L 0 *D ND2XLP

*CAP
1 *31:0 0.000177887
2 *31:1 0.000259988
3 *31:3 8.21015e-05
4 *31:6 2.82197e-05
5 *31:8 2.82197e-05
6 *31:10 8.21015e-05
7 *31:11 8.21015e-05
8 *31:13 7.86089e-05
9 *98:O 7.86089e-05

*RES
1 *31:13 *98:O 1.61
2 *31:12 *31:13 4
3 *31:11 *31:12 4
4 *31:10 *31:11 1.26
5 *31:8 *31:10 4
6 *31:6 *94:A1 4
7 *31:6 *31:8 0.42
8 *31:4 *93:I2 4
9 *31:3 *31:6 4
10 *31:2 *86:B1 4
11 *31:1 *31:4 4
12 *31:1 *31:3 1.26
13 *31:0 *31:2 4
14 *31:0 *31:1 2.73
*END

*D_NET *32 0.000217773

*CONN
*I *89:S I *C 12 21 *L 0 *D MXL2XLP
*I *92:I2 I *C 13 20 *L 0 *D NR2XLP
*I *99:O O *C 14 20 *L 0 *D OR2XLP

*CAP
1 *32:0 6.84179e-05
2 *32:1 9.57851e-05
3 *32:3 2.73672e-05
4 *32:8 1.31015e-05
5 *99:O 1.31015e-05

*RES
1 *32:8 *99:O 0.268333
2 *32:6 *32:8 4
3 *32:4 *92:I2 4
4 *32:3 *32:6 4
5 *32:2 *89:S 4
6 *32:1 *32:4 4
7 *32:1 *32:3 0.42
8 *32:0 *32:2 4
9 *32:0 *32:1 1.05
*END

*D_NET *33 0.000217773

*CONN
*I *112:QB O *C 10 20 *L 0 *D DFFRBX1
*I *89:A I *C 11 20 *L 0 *D MXL2XLP
*I *92:I1 I *C 12 20 *L 0 *D NR2XLP

*CAP
1 *112:QB 1.31015e-05
2 *89:A 1.31015e-05
3 *33:3 9.57851e-05
4 *33:4 9.57851e-05

*RES
1 *33:5 *92:I1 4
2 *33:4 *33:5 4
3 *33:3 *33:4 1.47
4 *33:2 *33:3 4
5 *89:A *33:2 4
6 *112:QB *89:A 0.268333
*END

*D_NET *34 0.000800844

*CONN
*I *114:QB O *C 11 7 *L 0 *D DFFRBX1
*I *72:A2 I *C 12 7 *L 0 *D AOI222XLP
*I *91:S I *C 14 11 *L 0 *D MXL2XLP

*CAP
1 *114:QB 6.55075e-05
2 *34:1 7.86089e-05
3 *34:2 2.6203e-05
4 *72:A2 1.31015e-05
5 *34:4 0.000239867
6 *34:5 0.000239867
7 *34:6 5.47343e-05
8 *34:7 5.47343e-05
9 *34:8 1.41098e-05
10 *34:9 1.41098e-05

*RES
1 *34:9 *91:S 4
2 *34:8 *34:9 0.21
3 *34:7 *34:8 4
4 *34:6 *34:7 0.84
5 *34:5 *34:6 4
6 *34:4 *34:5 3.57
7 *72:A2 *34:4 4
8 *34:2 *72:A2 0.268333
9 *34:1 *34:2 0.268333
10 *114:QB *34:1 1.34167
*END

*D_NET *35 0.000137688

*CONN
*I *91:OB O *C 14 13 *L 0 *D MXL2XLP
*I *73:B1 I *C 16 12 *L 0 *D OR2B1XLP

*CAP
1 *35:1 1.41098e-05
2 *35:2 1.41098e-05
3 *35:3 5.47343e-05
4 *35:4 5.47343e-05

*RES
1 *35:5 *73:B1 4
2 *35:4 *35:5 4
3 *35:3 *35:4 0.84
4 *35:2 *35:3 4
5 *35:1 *35:2 0.21
6 *91:OB *35:1 4
*END

*D_NET *36 0.00102947

*CONN
*I *90:A1 I *C 25 15 *L 0 *D AOI22XLP
*I *100:OB O *C 25 24 *L 0 *D MXL2XLP
*I *83:B1 I *C 23 15 *L 0 *D OAI12XLP

*CAP
1 *36:0 5.2406e-05
2 *36:1 6.55075e-05
3 *90:A1 1.31015e-05
4 *36:4 0.000395076
5 *36:5 4.10507e-05
6 *36:6 0.000395076
7 *36:7 4.10507e-05
8 *36:10 1.31015e-05
9 *83:B1 1.31015e-05

*RES
1 *36:10 *83:B1 0.268333
2 *36:9 *36:10 4
3 *36:7 *36:9 4
4 *36:6 *100:OB 4
5 *36:5 *36:7 0.63
6 *36:4 *36:6 5.88
7 *36:2 *36:5 4
8 *36:1 *36:4 4
9 *36:1 *90:A1 0.268333
10 *36:0 *36:2 4
11 *36:0 *36:1 1.07333
*END

*D_NET *37 0.000358331

*CONN
*I *90:O O *C 26 14 *L 0 *D AOI22XLP
*I *83:A1 I *C 23 15 *L 0 *D OAI12XLP

*CAP
1 *37:2 0.000136836
2 *37:3 0.000136836
3 *37:4 4.23295e-05
4 *37:5 4.23295e-05

*RES
1 *37:5 *83:A1 4
2 *37:4 *37:5 0.63
3 *37:3 *37:4 4
4 *37:2 *37:3 2.1
5 *37:1 *37:2 4
6 *90:O *37:1 4
*END

*D_NET *38 0.0003084

*CONN
*I *89:OB O *C 11 20 *L 0 *D MXL2XLP
*I *77:C2 I *C 10 18 *L 0 *D OAI122XLP

*CAP
1 *38:1 7.05492e-05
2 *38:2 9.87689e-05
3 *38:3 7.05492e-05
4 *38:4 4.23295e-05
5 *38:5 1.31015e-05
6 *77:C2 1.31015e-05

*RES
1 *38:5 *77:C2 0.268333
2 *38:4 *38:5 4
3 *38:3 *38:4 0.63
4 *38:2 *38:3 0.42
5 *38:1 *38:2 1.05
6 *89:OB *38:1 4
*END

*D_NET *39 0.00245417

*CONN
*I *87:I2 I *C 11 15 *L 0 *D ND3XLP
*I *91:A I *C 15 12 *L 0 *D MXL2XLP
*I *82:B2 I *C 16 15 *L 0 *D AO222XLP
*I *103:I I *C 20 15 *L 0 *D INVCKXLP
*I *106:O O *C 27 13 *L 0 *D NR2XLP
*I *90:A2 I *C 27 15 *L 0 *D AOI22XLP

*CAP
1 *39:0 0.00019157
2 *39:1 0.000112879
3 *39:2 0.000259988
4 *39:3 0.000112879
5 *39:4 6.84179e-05
6 *39:7 2.71619e-05
7 *39:9 2.71619e-05
8 *39:10 0.000164203
9 *39:11 0.000465242
10 *39:12 9.87689e-05
11 *39:13 8.46591e-05
12 *39:14 0.000301039
13 *39:15 9.87689e-05
14 *39:16 8.46591e-05
15 *39:17 1.41098e-05
16 *39:19 2.6203e-05
17 *39:20 1.41098e-05
18 *103:I 2.6203e-05
19 *39:22 3.93045e-05
20 *106:O 3.93045e-05
21 *39:24 9.87689e-05
22 *39:25 9.87689e-05

*RES
1 *39:25 *90:A2 4
2 *39:24 *39:25 1.47
3 *106:O *39:24 4
4 *39:22 *106:O 0.805
5 *39:20 *39:22 4
6 *39:19 *103:I 0.536667
7 *39:17 *39:20 0.21
8 *39:16 *39:19 4
9 *39:15 *82:B2 4
10 *39:14 *39:17 4
11 *39:13 *39:16 1.26
12 *39:12 *39:15 1.47
13 *39:11 *39:14 4.62
14 *39:11 *39:13 4
15 *39:10 *39:12 4
16 *39:10 *39:11 2.52
17 *39:9 *39:10 4
18 *39:7 *39:9 0.42
19 *39:5 *91:A 4
20 *39:4 *39:7 4
21 *39:3 *87:I2 4
22 *39:2 *39:5 4
23 *39:2 *39:4 1.05
24 *39:1 *39:3 1.68
25 *39:0 *39:2 2.94
26 *39:0 *39:1 4
*END

*D_NET *40 0.00149199

*CONN
*I *85:A2 I *C 13 18 *L 0 *D OA22XLP
*I *87:I1 I *C 11 15 *L 0 *D ND3XLP
*I *93:O O *C 12 24 *L 0 *D NR2XLP
*I *86:A1 I *C 10 24 *L 0 *D AOI12XLP

*CAP
1 *40:0 0.000112879
2 *40:1 0.000197538
3 *40:2 0.000123152
4 *40:3 9.87689e-05
5 *40:5 0.000123152
6 *40:6 0.000239867
7 *40:7 2.82197e-05
8 *40:8 0.000225758
9 *40:9 2.82197e-05
10 *40:10 2.6203e-05
11 *93:O 7.86089e-05
12 *40:13 6.55075e-05
13 *40:14 7.86089e-05
14 *86:A1 6.55075e-05

*RES
1 *40:14 *86:A1 1.34167
2 *40:13 *40:14 0.268333
3 *93:O *40:13 1.07333
4 *40:10 *93:O 0.536667
5 *40:9 *87:I1 4
6 *40:8 *40:10 4
7 *40:7 *40:9 0.42
8 *40:6 *40:8 3.36
9 *40:5 *40:7 4
10 *40:3 *40:6 0.21
11 *40:2 *40:5 1.89
12 *40:1 *85:A2 4
13 *40:1 *40:3 1.26
14 *40:0 *40:2 4
15 *40:0 *40:1 1.68
*END

*D_NET *41 0.000536174

*CONN
*I *86:O O *C 10 24 *L 0 *D AOI12XLP
*I *77:B1 I *C 10 18 *L 0 *D OAI122XLP

*CAP
1 *41:1 0.000155208
2 *41:2 0.000169318
3 *41:3 0.000112879
4 *41:4 9.87689e-05

*RES
1 *41:4 *77:B1 4
2 *41:3 *41:4 1.47
3 *41:2 *41:3 0.21
4 *41:1 *41:2 2.31
5 *86:O *41:1 4
*END

*D_NET *42 0.00146736

*CONN
*I *84:B1 I *C 7 15 *L 0 *D AOI23XLP
*I *88:I1 I *C 13 12 *L 0 *D AN3XLP
*I *85:B1 I *C 13 18 *L 0 *D OA22XLP
*I *92:O O *C 13 20 *L 0 *D NR2XLP

*CAP
1 *42:0 0.000259988
2 *42:1 2.82197e-05
3 *42:2 0.000273672
4 *42:3 2.82197e-05
5 *42:4 1.36836e-05
6 *42:5 8.46591e-05
7 *42:7 8.14856e-05
8 *42:8 8.46591e-05
9 *42:9 8.14856e-05
10 *42:11 1.36836e-05
11 *42:12 1.36836e-05
12 *42:13 0.000112879
13 *42:14 0.000169318
14 *42:15 7.05492e-05
15 *42:17 5.64394e-05
16 *42:18 4.23295e-05
17 *42:19 2.6203e-05
18 *92:O 2.6203e-05

*RES
1 *42:19 *92:O 0.536667
2 *42:18 *42:19 4
3 *42:17 *42:18 0.63
4 *42:15 *42:17 0.21
5 *42:14 *85:B1 4
6 *42:14 *42:15 0.84
7 *42:13 *42:14 1.68
8 *42:12 *42:13 4
9 *42:11 *42:12 0.21
10 *42:9 *42:11 4
11 *42:8 *88:I1 4
12 *42:7 *42:9 1.26
13 *42:5 *42:8 1.26
14 *42:4 *42:7 4
15 *42:3 *84:B1 4
16 *42:2 *42:5 4
17 *42:2 *42:4 0.21
18 *42:1 *42:3 0.42
19 *42:0 *42:2 3.99
20 *42:0 *42:1 4
*END

*D_NET *43 0.00143293

*CONN
*I *88:I2 I *C 12 12 *L 0 *D AN3XLP
*I *84:B2 I *C 8 15 *L 0 *D AOI23XLP
*I *91:B I *C 14 12 *L 0 *D MXL2XLP
*I *101:O O *C 17 13 *L 0 *D INVCKXLP
*I *82:C2 I *C 17 15 *L 0 *D AO222XLP

*CAP
1 *43:0 0.000112879
2 *43:1 0.000126989
3 *43:2 0.000205254
4 *43:4 1.41098e-05
5 *43:5 0.000205254
6 *43:6 8.21015e-05
7 *43:8 8.21015e-05
8 *43:9 1.31015e-05
9 *43:10 2.82197e-05
10 *84:B2 1.31015e-05
11 *43:12 2.82197e-05
12 *43:14 0.000109469
13 *43:15 0.000136836
14 *43:16 2.73672e-05
15 *43:17 8.46591e-05
16 *43:19 8.46591e-05
17 *43:21 2.6203e-05
18 *43:22 3.93045e-05
19 *82:C2 1.31015e-05

*RES
1 *43:22 *82:C2 0.268333
2 *43:21 *43:22 0.536667
3 *43:19 *43:21 4
4 *43:18 *101:O 4
5 *43:17 *43:19 1.26
6 *43:16 *43:18 4
7 *43:15 *43:17 4
8 *43:15 *43:16 0.42
9 *43:14 *43:15 1.68
10 *43:12 *43:14 4
11 *43:10 *91:B 4
12 *43:10 *43:12 0.42
13 *43:9 *84:B2 0.268333
14 *43:8 *43:10 4
15 *43:7 *43:9 4
16 *43:6 *43:8 1.26
17 *43:5 *43:7 4
18 *43:4 *43:6 4
19 *43:2 *43:5 3.15
20 *43:1 *43:4 0.21
21 *43:1 *88:I2 4
22 *43:0 *43:2 4
23 *43:0 *43:1 1.68
*END

*D_NET *44 0.000246305

*CONN
*I *84:O O *C 7 14 *L 0 *D AOI23XLP
*I *74:A1 I *C 9 15 *L 0 *D OAI112XLP

*CAP
1 *44:2 0.000123152
2 *44:3 0.000123152

*RES
1 *44:4 *74:A1 4
2 *44:3 *44:4 4
3 *44:2 *44:3 1.89
4 *44:1 *44:2 4
5 *84:O *44:1 4
*END

*D_NET *45 0.000282197

*CONN
*I *83:O O *C 23 15 *L 0 *D OAI12XLP
*I *78:D I *C 23 18 *L 0 *D QDFFRBX1

*CAP
1 *45:1 7.05492e-05
2 *45:2 8.46591e-05
3 *45:3 7.05492e-05
4 *45:4 5.64394e-05

*RES
1 *45:4 *78:D 4
2 *45:3 *45:4 0.84
3 *45:2 *45:3 0.21
4 *45:1 *45:2 1.05
5 *83:O *45:1 4
*END

*D_NET *46 0.00028018

*CONN
*I *82:O O *C 19 14 *L 0 *D AO222XLP
*I *115:D I *C 19 18 *L 0 *D DFFRBX1

*CAP
1 *82:O 1.31015e-05
2 *46:1 1.31015e-05
3 *46:2 0.000126989
4 *46:3 0.000126989

*RES
1 *46:3 *115:D 4
2 *46:2 *46:3 1.89
3 *46:1 *46:2 4
4 *82:O *46:1 0.268333
*END

*D_NET *47 0.00061075

*CONN
*I *72:A1 I *C 12 7 *L 0 *D AOI222XLP
*I *81:I1 I *C 12 9 *L 0 *D AN2XLP
*I *88:O O *C 11 13 *L 0 *D AN3XLP

*CAP
1 *47:0 0.000112879
2 *47:1 3.93045e-05
3 *47:2 0.000239867
4 *72:A1 3.93045e-05
5 *47:4 2.6203e-05
6 *47:5 0.000126989
7 *81:I1 2.6203e-05

*RES
1 *47:5 *88:O 4
2 *47:4 *81:I1 0.536667
3 *47:2 *47:5 1.89
4 *47:2 *47:4 4
5 *47:1 *72:A1 0.805
6 *47:0 *47:2 1.68
7 *47:0 *47:1 4
*END

*D_NET *48 0.000727662

*CONN
*I *74:B1 I *C 9 15 *L 0 *D OAI112XLP
*I *80:I2 I *C 10 9 *L 0 *D NR2XLP
*I *87:O O *C 11 14 *L 0 *D ND3XLP

*CAP
1 *48:0 2.6203e-05
2 *48:1 0.000310417
3 *74:B1 2.6203e-05
4 *48:3 5.64394e-05
5 *48:4 0.000268087
6 *48:5 1.41098e-05
7 *48:7 1.31015e-05